omf/scratch/srivats/main.glm
clock {
	timezone EST+5EDT;
	starttime '2012-01-01 00:00:00';
	stoptime '2012-12-31 00:00:00';
};

#define stylesheet=http://gridlab-d.svn.sourceforge.net/viewvc/gridlab-d/trunk/core/gridlabd-2_0

#set minimum_timestep=300

#set profiler=1

#set relax_naming_rules=1

module tape {
};

module climate {
};

module powerflow {
	solver_method FBS;
	NR_iteration_limit 50;
};

class player{
	double value;
};

object player {
	file loadShapeScalar.player;
	property value;
	name norm_feeder_loadshape;
	loop 0;
};

object transformer_configuration {
	name trans_config_to_feeder;
	primary_voltage 7200;
	install_type PADMOUNT;
	secondary_voltage 7200.0;
	connect_type WYE_WYE;
	impedance 0.00033+0.0022j;
	power_rating 7.5 MVA;
};

object meter {
	phases ABCN;
	nominal_voltage 7200;
	name network_node;
	bustype SWING;
};

object player {
	parent network_node;
	property voltage_A;
	loop 0;
	file "../schedules/VA.player";
};

object player {
	parent network_node;
	property voltage_B;
	loop 0;
	file "../schedules/VB.player";
};

object player {
	parent network_node;
	property voltage_C;
	loop 0;
	file "../schedules/VC.player";
};

object transformer {
	phases ABCN;
	from network_node;
	name substation_transformer;
	to COLOMA SUB;
	configuration trans_config_to_feeder;
	groupid Distribution_Trans;
};

object triplex_node {
	phases BS;
	name S1807-34-009_B;
	parent nodeS1807-34-009T28732_B;
	longitude 0;
	nominal_voltage 120;
	latitude 0;
};

object overhead_line {
	phases BN;
	from node824907824905;
	name 824907;
	longitude 0;
	to node824908824907;
	length 110;
	latitude 0;
	configuration 825114-LINECONFIG;
	groupid Distribution_Line;
};

object node {
	phases CN;
	name node825698825696;
	longitude 0;
	nominal_voltage 7200.0;
	latitude 0;
};

object underground_line {
	phases B;
	from node825574825572;
	name 825574;
	longitude 0;
	to node825575825574;
	length 228;
	latitude 0;
	configuration 825599-LINECONFIG;
	groupid Distribution_Line;
};

object triplex_meter {
	phases CS;
	name nodeS1808-29-0911808-0148_C;
	longitude 0;
	nominal_voltage 120;
	latitude 0;
};

object node {
	phases CN;
	name node825714825713;
	longitude 0;
	nominal_voltage 7200.0;
	latitude 0;
};

object triplex_node {
	phases CS;
	name S1707-10-004_C;
	parent nodeS1707-10-004T10266_C;
	longitude 0;
	nominal_voltage 120;
	latitude 0;
};

object triplex_node {
	phases BS;
	name S1707-09-007_B;
	parent nodeS1707-09-007T10305_B;
	longitude 0;
	nominal_voltage 120;
	latitude 0;
};

object node {
	phases B;
	name node825538F28718x1;
	longitude 0;
	nominal_voltage 7200.0;
	latitude 0;
};

object node {
	phases B;
	name node825587825586;
	longitude 0;
	nominal_voltage 7200.0;
	latitude 0;
};

object triplex_node {
	phases BS;
	name S1708-09-016_B;
	parent nodeS1708-09-0151708-09-002_B;
	longitude 0;
	nominal_voltage 120;
	latitude 0;
};

object node {
	phases B;
	name nodeT15718929744;
	longitude 0;
	nominal_voltage 7200.0;
	latitude 0;
};

object triplex_node {
	phases BS;
	name S1708-16-020_B;
	parent nodeS1708-16-0201708-16-012_B;
	longitude 0;
	nominal_voltage 120;
	latitude 0;
};

object transformer {
	phases BS;
	from nodeT10263825298;
	name T10263_B;
	to nodeS1707-03-015T10263_B;
	configuration 1807--T325_B-CONFIG;
	groupid Distribution_Trans;
};

object node {
	phases ABCN;
	name node824836824835;
	longitude 0;
	nominal_voltage 7200.0;
	latitude 0;
};

object transformer {
	phases BS;
	from nodeT10285923966;
	name T10285_B;
	to nodeS1707-15-010T10285_B;
	configuration 1807--T325_B-CONFIG;
	groupid Distribution_Trans;
};

object triplex_node {
	phases CS;
	name S1707-02-010_C;
	parent nodeS1707-02-010T28711_C;
	longitude 0;
	nominal_voltage 120;
	latitude 0;
};

object triplex_meter {
	phases BS;
	name nodeS1708-16-0151708-0046_B;
	longitude 0;
	nominal_voltage 120;
	latitude 0;
};

object node {
	phases B;
	name node1708-05-001824918;
	longitude 0;
	nominal_voltage 7200.0;
	latitude 0;
};

object underground_line {
	phases ACB;
	from node923943923942;
	name 923952;
	longitude 0;
	to node825312923952;
	length 1620;
	latitude 0;
	configuration 923991-LINECONFIG;
	groupid Distribution_Line;
};

object overhead_line {
	phases CN;
	from node824858824857;
	name 824858;
	longitude 0;
	to node824859824858;
	length 303;
	latitude 0;
	configuration 825694-LINECONFIG;
	groupid Distribution_Line;
};

object underground_line {
	phases C;
	from node923978923977;
	name 923978;
	longitude 0;
	to nodeT10292923978;
	length 284;
	latitude 0;
	configuration 925975-LINECONFIG;
	groupid Distribution_Line;
};

object overhead_line {
	phases AN;
	from node925842925841;
	name 925842;
	longitude 0;
	to node925843925842;
	length 400;
	latitude 0;
	configuration 825240-LINECONFIG;
	groupid Distribution_Line;
};

object triplex_node {
	phases CS;
	name S1808-20-002_C;
	parent nodeS1808-20-0021808-20-002_C;
	longitude 0;
	nominal_voltage 120;
	latitude 0;
};

object node {
	phases B;
	name nodeT11814919020;
	longitude 0;
	nominal_voltage 7200.0;
	latitude 0;
};

object node {
	phases C;
	name node972841R7230x1;
	longitude 0;
	nominal_voltage 7200.0;
	latitude 0;
};

object node {
	phases ABC;
	name node10310x1-B960602;
	longitude 0;
	nominal_voltage 7200.0;
	latitude 0;
};

object underground_line {
	phases B;
	from node974683974679;
	name 974683;
	longitude 0;
	to node825593974683;
	length 80;
	latitude 0;
	configuration 825117-LINECONFIG;
	groupid Distribution_Line;
};

object triplex_node {
	phases BS;
	name S1708-09-009_B;
	parent nodeS1708-09-0061708-09-022_B;
	longitude 0;
	nominal_voltage 120;
	latitude 0;
};

object transformer {
	phases CS;
	from node825709825707;
	name 1808-27-004_C;
	to nodeS1808-27-0101808-27-004_C;
	configuration T11988_C-CONFIG;
	groupid Distribution_Trans;
};

object triplex_meter {
	phases BS;
	name nodeS1708-06-0171708-0040_B;
	longitude 0;
	nominal_voltage 120;
	latitude 0;
};

object underground_line {
	phases ACB;
	from node824901824900;
	name 824901;
	longitude 0;
	to nodeREG14824901;
	length 1053;
	latitude 0;
	configuration 824901-LINECONFIG;
	groupid Distribution_Line;
};

object regulator_configuration {
	Control LINE_DROP_COMP;
	raise_taps 16.0;
	PT_phase A;
	name REG14-CONFIG;
	band_center 117.99996;
	current_transducer_ratio 75;
	power_transducer_ratio 60.0;
	compensator_x_setting_A 6.399996;
	time_delay 30.0;
	connect_type WYE_WYE;
	regulation 0.1;
	CT_phase A;
	band_width 2.000004;
	tap_pos_A 1;
	control_level INDIVIDUAL;
	compensator_r_setting_A 19.40004;
	Type A;
	lower_taps 16.0;
};

object underground_line {
	phases ACB;
	from node824899824894;
	name 825627;
	longitude 0;
	to node1808-0100825627;
	length 1418;
	latitude 0;
	configuration 825456-LINECONFIG;
	groupid Distribution_Line;
};

object triplex_node {
	phases CS;
	name S1808-29-093_C;
	parent nodeS1808-29-0931808-0160_C;
	longitude 0;
	nominal_voltage 120;
	latitude 0;
};

object triplex_node {
	phases CS;
	name S1808-29-080_C;
	parent nodeS1808-29-0801808-0123_C;
	longitude 0;
	nominal_voltage 120;
	latitude 0;
};

object transformer {
	phases AS;
	from node1807-0274825619;
	name 1807-0274_A;
	to nodeS1807-36-0091807-0274_A;
	configuration T10285_A-CONFIG;
	groupid Distribution_Trans;
};

object node {
	phases B;
	name node929730929729;
	longitude 0;
	nominal_voltage 7200.0;
	latitude 0;
};

object underground_line {
	phases B;
	from node929726923998;
	name 929726;
	longitude 0;
	to nodeT10302929726;
	length 130;
	latitude 0;
	configuration 825117-LINECONFIG;
	groupid Distribution_Line;
};

object node {
	phases AN;
	name node825259956631;
	longitude 0;
	nominal_voltage 7200.0;
	latitude 0;
};

object overhead_line {
	phases AN;
	from node913783825261;
	name 913783;
	longitude 0;
	to node955225913783;
	length 504;
	latitude 0;
	configuration 913826-LINECONFIG;
	groupid Distribution_Line;
};

object node {
	phases BN;
	name node824971824970;
	longitude 0;
	nominal_voltage 7200.0;
	latitude 0;
};

object overhead_line {
	phases BN;
	from node825144825143;
	name 825144;
	longitude 0;
	to node825145825144;
	length 680;
	latitude 0;
	configuration 825114-LINECONFIG;
	groupid Distribution_Line;
};

object triplex_meter {
	phases BS;
	name nodeS1808-19-004T29595_B;
	longitude 0;
	nominal_voltage 120;
	latitude 0;
};

object triplex_node {
	phases CS;
	name S1808-32-016_C;
	parent nodeS1808-32-0161808-32-024_C;
	longitude 0;
	nominal_voltage 120;
	latitude 0;
};

object triplex_node {
	phases BS;
	name S1707-03-013_B;
	parent nodeS1707-03-013T28733_B;
	longitude 0;
	nominal_voltage 120;
	latitude 0;
};

object triplex_meter {
	phases BS;
	name nodeS1807-33-0031807-33-007_B;
	longitude 0;
	nominal_voltage 120;
	latitude 0;
};

object triplex_meter {
	phases CS;
	name nodeS1807-25-0131807--T325_C;
	longitude 0;
	nominal_voltage 120;
	latitude 0;
};

object node {
	phases C;
	name node824816824815;
	longitude 0;
	nominal_voltage 7200.0;
	latitude 0;
};

object triplex_meter {
	phases CS;
	name nodeS1808-29-0731808-0085_C;
	longitude 0;
	nominal_voltage 120;
	latitude 0;
};

object underground_line {
	phases B;
	from node974677974695;
	name 974697;
	longitude 0;
	to nodeT28720974697;
	length 126;
	latitude 0;
	configuration 825117-LINECONFIG;
	groupid Distribution_Line;
};

object node {
	phases B;
	name nodeR7234x1974675;
	longitude 0;
	nominal_voltage 7200.0;
	latitude 0;
};

object triplex_node {
	phases CS;
	name S1808-29-088_C;
	parent nodeS1808-29-0011808-29-006_C;
	longitude 0;
	nominal_voltage 120;
	latitude 0;
};

object underground_line {
	phases ACB;
	from node824697984639;
	name 824833;
	longitude 0;
	to node824834824833;
	length 281;
	latitude 0;
	configuration 923991-LINECONFIG;
	groupid Distribution_Line;
};

object triplex_node {
	phases AS;
	name S1707-12-002_A;
	parent nodeS1707-12-0021707-12-007_A;
	longitude 0;
	nominal_voltage 120;
	latitude 0;
};

object underground_line {
	phases B;
	from node824923824922;
	name 825162;
	longitude 0;
	to nodeFCMA4-F032x1825162;
	length 61;
	latitude 0;
	configuration 825599-LINECONFIG;
	groupid Distribution_Line;
};

object node {
	phases ABC;
	name node923973923972;
	longitude 0;
	nominal_voltage 7200.0;
	latitude 0;
};

object node {
	phases BN;
	name node825144825143;
	longitude 0;
	nominal_voltage 7200.0;
	latitude 0;
};

object node {
	phases B;
	name nodeFCMA4-F032x1825162;
	longitude 0;
	nominal_voltage 7200.0;
	latitude 0;
};

object node {
	phases C;
	name nodeT4114911238;
	longitude 0;
	nominal_voltage 7200.0;
	latitude 0;
};

object triplex_node {
	phases BS;
	name S1807-25-012_B;
	parent nodeS1807-25-0111807-25-003_B;
	longitude 0;
	nominal_voltage 120;
	latitude 0;
};

object underground_line {
	phases A;
	from node923978923977;
	name 923984;
	longitude 0;
	to nodeT10293923984;
	length 283;
	latitude 0;
	configuration 955227-LINECONFIG;
	groupid Distribution_Line;
};

object overhead_line {
	phases BN;
	from node824953824952;
	name 824953;
	longitude 0;
	to node824954824953;
	length 184;
	latitude 0;
	configuration 825114-LINECONFIG;
	groupid Distribution_Line;
};

object triplex_meter {
	phases BS;
	name nodeS1707-04-009T15718_B;
	longitude 0;
	nominal_voltage 120;
	latitude 0;
};

object overhead_line {
	phases BN;
	from node825114825113;
	name 825114;
	longitude 0;
	to node825115825114;
	length 31;
	latitude 0;
	configuration 825114-LINECONFIG;
	groupid Distribution_Line;
};

object transformer {
	phases AS;
	from node1707-0190825256;
	name 1707-0190_A;
	to nodeS1707-13-0131707-0190_A;
	configuration T15860_A-CONFIG;
	groupid Distribution_Trans;
};

object node {
	phases AN;
	name node825251825250;
	longitude 0;
	nominal_voltage 7200.0;
	latitude 0;
};

object node {
	phases ABC;
	name node825314825313;
	longitude 0;
	nominal_voltage 7200.0;
	latitude 0;
};

object triplex_node {
	phases BS;
	name S1807-33-009_B;
	parent nodeS1807-33-006T25124_B;
	longitude 0;
	nominal_voltage 120;
	latitude 0;
};

object triplex_meter {
	phases BS;
	name nodeS1708-17-016T19039_B;
	longitude 0;
	nominal_voltage 120;
	latitude 0;
};

object transformer {
	phases CS;
	from node1808-19-005824705;
	name 1808-19-005_C;
	to nodeS1808-19-0111808-19-005_C;
	configuration 1808-19-009_C-CONFIG;
	groupid Distribution_Trans;
};

object overhead_line {
	phases AN;
	from node825186825185;
	name 825186;
	longitude 0;
	to node825187825186;
	length 309;
	latitude 0;
	configuration 825240-LINECONFIG;
	groupid Distribution_Line;
};

object fuse {
	phases C;
	from nodeF14064x1825745;
	name F14064x1;
	current_limit 9999.0 A;
	longitude 0;
	to node825746F14064x1;
	latitude 0;
};

object node {
	phases B;
	name node933218933217;
	longitude 0;
	nominal_voltage 7200.0;
	latitude 0;
};

object overhead_line {
	phases AN;
	from node825234825233;
	name 825234;
	longitude 0;
	to node825236825234;
	length 365;
	latitude 0;
	configuration 825240-LINECONFIG;
	groupid Distribution_Line;
};

object triplex_meter {
	phases BS;
	name nodeS1707-03-016T18015_B;
	longitude 0;
	nominal_voltage 120;
	latitude 0;
};

object transformer {
	phases CS;
	from node1808-0124825716;
	name 1808-0124_C;
	to nodeS1808-27-0091808-0124_C;
	configuration T11988_C-CONFIG;
	groupid Distribution_Trans;
};

object triplex_meter {
	phases CS;
	name nodeS1807-36-0081807-36-002_C;
	longitude 0;
	nominal_voltage 120;
	latitude 0;
};

object triplex_meter {
	phases CS;
	name nodeS1707-03-017T28684_C;
	longitude 0;
	nominal_voltage 120;
	latitude 0;
};

object transformer {
	phases BS;
	from nodeT11814919020;
	name T11814_B;
	to nodeS1708-06-019T11814_B;
	configuration 1707-0079_B-CONFIG;
	groupid Distribution_Trans;
};

object meter {
	phases ABCN;
	name COLOMA SUB;
	longitude 0;
	nominal_voltage 7200.0;
	latitude 0;
};

object regulator_configuration {
	Control OUTPUT_VOLTAGE;
	raise_taps 16.0;
	PT_phase ABC;
	name Coloma Bus Regs-CONFIG;
	band_center 120.0;
	current_transducer_ratio 500;
	tap_pos_B 1;
	tap_pos_C 1;
	time_delay 30.0;
	connect_type WYE_WYE;
	regulation 0.1;
	CT_phase ABC;
	power_transducer_ratio 60.0;
	band_width 2.000004;
	tap_pos_A 1;
	control_level INDIVIDUAL;
	Type A;
	lower_taps 16.0;
};

object node {
	phases ABCN;
	name node824701824700;
	longitude 0;
	nominal_voltage 7200.0;
	latitude 0;
};

object transformer {
	phases BS;
	from nodeT7674825499;
	name T7674_B;
	to nodeS1707-02-006T7674_B;
	configuration T7674_B-CONFIG;
	groupid Distribution_Trans;
};

object underground_line {
	phases C;
	from node928120928118;
	name 928122;
	longitude 0;
	to node928768928122;
	length 290;
	latitude 0;
	configuration 925975-LINECONFIG;
	groupid Distribution_Line;
};

object node {
	phases B;
	name node1807-33-004825557;
	longitude 0;
	nominal_voltage 7200.0;
	latitude 0;
};

object triplex_node {
	phases BS;
	name S1807-34-012_B;
	parent nodeS1807-34-0121807-0303_B;
	longitude 0;
	nominal_voltage 120;
	latitude 0;
};

object transformer {
	phases CS;
	from node911238911237;
	name T4113_C;
	to nodeS1808-20-008T4113_C;
	configuration T11988_C-CONFIG;
	groupid Distribution_Trans;
};

object node {
	phases BN;
	name node824961824960;
	longitude 0;
	nominal_voltage 7200.0;
	latitude 0;
};

object triplex_meter {
	phases CS;
	name nodeS1808-30-0641808-30-013_C;
	longitude 0;
	nominal_voltage 120;
	latitude 0;
};

object node {
	phases B;
	name nodeF10301x1923995;
	longitude 0;
	nominal_voltage 7200.0;
	latitude 0;
};

object transformer {
	phases CS;
	from node1808-29-029824786;
	name 1808-29-029_C;
	to nodeS1808-29-0701808-29-029_C;
	configuration T11988_C-CONFIG;
	groupid Distribution_Trans;
};

object underground_line {
	phases A;
	from node825215825212;
	name 825215;
	longitude 0;
	to node825216825215;
	length 1779;
	latitude 0;
	configuration 825215-LINECONFIG;
	groupid Distribution_Line;
};

object line_spacing {
	distance_AN 4.437842;
	name 913826-LINESPACING;
	distance_CN 0.000000;
	distance_BC 0.000000;
	distance_AB 0.000000;
	distance_AC 0.000000;
	distance_BN 0.000000;
};

object fuse {
	phases ACB;
	from nodeF14093x1949864;
	name F14093x1;
	current_limit 9999.0 A;
	longitude 0;
	to node949865F14093x1;
	latitude 0;
};

object overhead_line {
	phases AN;
	from node913784955225;
	name 913784;
	longitude 0;
	to node913826913784;
	length 501;
	latitude 0;
	configuration 913826-LINECONFIG;
	groupid Distribution_Line;
};

object line_configuration {
	conductor_A 913826_conductor_N;
	conductor_N 913826_conductor_N;
	spacing 913826-LINESPACING;
	name 913826-LINECONFIG;
};

object triplex_node {
	phases BS;
	name S1708-17-016_B;
	parent nodeS1708-17-016T19039_B;
	longitude 0;
	nominal_voltage 120;
	latitude 0;
};

object underground_line {
	phases B;
	from node825609974693;
	name 825609;
	longitude 0;
	to node825610825609;
	length 719;
	latitude 0;
	configuration 825117-LINECONFIG;
	groupid Distribution_Line;
};

object overhead_line {
	phases C;
	from node825778825777;
	name 825778;
	longitude 0;
	to nodeF25084x1825778;
	length 55;
	latitude 0;
	configuration 825694-LINECONFIG;
	groupid Distribution_Line;
};

object triplex_meter {
	phases CS;
	name nodeS1808-29-096T3902_C;
	longitude 0;
	nominal_voltage 120;
	latitude 0;
};

object node {
	phases C;
	name nodeT14065929701;
	longitude 0;
	nominal_voltage 7200.0;
	latitude 0;
};

object node {
	phases CN;
	name node980396824859;
	longitude 0;
	nominal_voltage 7200.0;
	latitude 0;
};

object underground_line {
	phases B;
	from node933218933217;
	name 933218;
	longitude 0;
	to nodeT11961933218;
	length 1030;
	latitude 0;
	configuration 825117-LINECONFIG;
	groupid Distribution_Line;
};

object transformer {
	phases BS;
	from nodeT28933979617;
	name T28933_B;
	to nodeS1808-19-008T28933_B;
	configuration T10274_B-CONFIG;
	groupid Distribution_Trans;
};

object node {
	phases A;
	name node825215825212;
	longitude 0;
	nominal_voltage 7200.0;
	latitude 0;
};

object triplex_meter {
	phases BS;
	name nodeS1807-34-010T28725_B;
	longitude 0;
	nominal_voltage 120;
	latitude 0;
};

object triplex_node {
	phases CS;
	name S1808-29-070_C;
	parent nodeS1808-29-0701808-29-029_C;
	longitude 0;
	nominal_voltage 120;
	latitude 0;
};

object node {
	phases ABC;
	name nodeREG14824901;
	longitude 0;
	nominal_voltage 7200.0;
	latitude 0;
};

object triplex_meter {
	phases BS;
	name nodeS1708-09-0031708-09-025_B;
	longitude 0;
	nominal_voltage 120;
	latitude 0;
};

object transformer {
	phases BS;
	from node825577825575;
	name 1807-0020_B;
	to nodeS1807-33-0101807-0020_B;
	configuration 1707-0079_B-CONFIG;
	groupid Distribution_Trans;
};

object underground_line {
	phases C;
	from node824742824741;
	name 824742;
	longitude 0;
	to nodeFCMA4-F008x1824742;
	length 178;
	latitude 0;
	configuration 925975-LINECONFIG;
	groupid Distribution_Line;
};

object triplex_meter {
	phases CS;
	name nodeS1808-20-008T4113_C;
	longitude 0;
	nominal_voltage 120;
	latitude 0;
};

object overhead_line {
	phases BN;
	from node824983824982;
	name 824983;
	longitude 0;
	to node824984824983;
	length 296;
	latitude 0;
	configuration 825114-LINECONFIG;
	groupid Distribution_Line;
};

object triplex_meter {
	phases AS;
	name nodeS1808-19-0031808-19-009_A;
	longitude 0;
	nominal_voltage 120;
	latitude 0;
};

object node {
	phases ABC;
	name nodeF10288x1923974;
	longitude 0;
	nominal_voltage 7200.0;
	latitude 0;
};

object node {
	phases B;
	name node929751929750;
	longitude 0;
	nominal_voltage 7200.0;
	latitude 0;
};

object triplex_node {
	phases BS;
	name S1708-17-006_B;
	parent nodeS1708-17-0061708-17-020_B;
	longitude 0;
	nominal_voltage 120;
	latitude 0;
};

object underground_line {
	phases B;
	from node825498825497;
	name 825498;
	longitude 0;
	to node825499825498;
	length 1031;
	latitude 0;
	configuration 825117-LINECONFIG;
	groupid Distribution_Line;
};

object node {
	phases C;
	name node925975923993;
	longitude 0;
	nominal_voltage 7200.0;
	latitude 0;
};

object node {
	phases AN;
	name node825233825232;
	longitude 0;
	nominal_voltage 7200.0;
	latitude 0;
};

object transformer {
	phases BS;
	from nodeT12199928120;
	name T12199_B;
	to nodeS1707-09-014T12199_B;
	configuration 1807--T325_B-CONFIG;
	groupid Distribution_Trans;
};

object node {
	phases CN;
	name node825792825791;
	longitude 0;
	nominal_voltage 7200.0;
	latitude 0;
};

object triplex_meter {
	phases BS;
	name nodeS1708-06-0121708-06-002_B;
	longitude 0;
	nominal_voltage 120;
	latitude 0;
};

object triplex_node {
	phases BS;
	name S1807-35-001_B;
	parent nodeS1807-35-001T18012_B;
	longitude 0;
	nominal_voltage 120;
	latitude 0;
};

object node {
	phases B;
	name node825141F7304x1;
	longitude 0;
	nominal_voltage 7200.0;
	latitude 0;
};

object triplex_meter {
	phases AS;
	name nodeS1707-10-030T10276_A;
	longitude 0;
	nominal_voltage 120;
	latitude 0;
};

object node {
	phases C;
	name node825733F18558x1;
	longitude 0;
	nominal_voltage 7200.0;
	latitude 0;
};

object underground_line {
	phases B;
	from node929744929743;
	name 929744;
	longitude 0;
	to nodeT15718929744;
	length 870;
	latitude 0;
	configuration 825117-LINECONFIG;
	groupid Distribution_Line;
};

object transformer {
	phases CS;
	from nodeT4037911157;
	name T4037_C;
	to nodeS1808-29-099T4037_C;
	configuration T7300_C-CONFIG;
	groupid Distribution_Trans;
};

object overhead_line {
	phases ACB;
	from node979614824707;
	name 979839;
	longitude 0;
	to node824712979839;
	length 50;
	latitude 0;
	configuration 824894-LINECONFIG;
	groupid Distribution_Line;
};

object overhead_line {
	phases AN;
	from node825251825250;
	name 825251;
	longitude 0;
	to node910117825251;
	length 410;
	latitude 0;
	configuration 913826-LINECONFIG;
	groupid Distribution_Line;
};

object fuse {
	phases B;
	from nodeF7304x1825140;
	name F7304x1;
	current_limit 9999.0 A;
	longitude 0;
	to node825141F7304x1;
	latitude 0;
};

object triplex_node {
	phases CS;
	name S1808-20-007_C;
	parent nodeS1808-20-0071808-20-011_C;
	longitude 0;
	nominal_voltage 120;
	latitude 0;
};

object underground_line {
	phases ACB;
	from node825485923955;
	name 923961;
	longitude 0;
	to node923962923961;
	length 1024;
	latitude 0;
	configuration 923991-LINECONFIG;
	groupid Distribution_Line;
};

object transformer {
	phases CS;
	from node983715825797;
	name T29031_C;
	to nodeS1807-24-034T29031_C;
	configuration T10270_C-CONFIG;
	groupid Distribution_Trans;
};

object triplex_node {
	phases CS;
	name S1808-29-092_C;
	parent nodeS1808-29-0921808-0150_C;
	longitude 0;
	nominal_voltage 120;
	latitude 0;
};

object node {
	phases A;
	name nodeT4331825269;
	longitude 0;
	nominal_voltage 7200.0;
	latitude 0;
};

object node {
	phases B;
	name nodeF21729x1975302;
	longitude 0;
	nominal_voltage 7200.0;
	latitude 0;
};

object node {
	phases C;
	name node824888F18666x1;
	longitude 0;
	nominal_voltage 7200.0;
	latitude 0;
};

object node {
	phases BN;
	name node974705F28730x1;
	longitude 0;
	nominal_voltage 7200.0;
	latitude 0;
};

object triplex_node {
	phases AS;
	name S1708-06-013_A;
	parent nodeS1708-06-013T15861_A;
	longitude 0;
	nominal_voltage 120;
	latitude 0;
};

object triplex_meter {
	phases AS;
	name nodeS1707-11-0031707-0074_A;
	longitude 0;
	nominal_voltage 120;
	latitude 0;
};

object underground_line {
	phases C;
	from node825703FCMA4-F047x1;
	name 825703;
	longitude 0;
	to node825704825703;
	length 176;
	latitude 0;
	configuration 925975-LINECONFIG;
	groupid Distribution_Line;
};

object triplex_node {
	phases CS;
	name S1808-34-003_C;
	parent nodeS1808-34-0031808-27-005_C;
	longitude 0;
	nominal_voltage 120;
	latitude 0;
};

object triplex_meter {
	phases CS;
	name nodeS1808-32-0131808-0082_C;
	longitude 0;
	nominal_voltage 120;
	latitude 0;
};

object triplex_meter {
	phases CS;
	name nodeS1808-32-076T3288_C;
	longitude 0;
	nominal_voltage 120;
	latitude 0;
};

object node {
	phases B;
	name nodeF28708x1974671;
	longitude 0;
	nominal_voltage 7200.0;
	latitude 0;
};

object overhead_line {
	phases BN;
	from node824960824959;
	name 824960;
	longitude 0;
	to node824961824960;
	length 262;
	latitude 0;
	configuration 825114-LINECONFIG;
	groupid Distribution_Line;
};

object underground_line {
	phases C;
	from node824881F5402x1;
	name 824881;
	longitude 0;
	to node1807-0299824881;
	length 553;
	latitude 0;
	configuration 925975-LINECONFIG;
	groupid Distribution_Line;
};

object triplex_node {
	phases BS;
	name S1707-10-007_B;
	parent nodeS1707-10-007T10272_B;
	longitude 0;
	nominal_voltage 120;
	latitude 0;
};

object underground_line {
	phases A;
	from node825221825220;
	name 955235;
	longitude 0;
	to nodeT12388955235;
	length 20;
	latitude 0;
	configuration 955227-LINECONFIG;
	groupid Distribution_Line;
};

object underground_line {
	phases B;
	from node824943824942;
	name 824943;
	longitude 0;
	to nodeF18635x1824943;
	length 91;
	latitude 0;
	configuration 825117-LINECONFIG;
	groupid Distribution_Line;
};

object node {
	phases C;
	name nodeR7231x1824848;
	longitude 0;
	nominal_voltage 7200.0;
	latitude 0;
};

object node {
	phases BN;
	name node825008825007;
	longitude 0;
	nominal_voltage 7200.0;
	latitude 0;
};

object triplex_node {
	phases BS;
	name S1708-09-014_B;
	parent nodeS1708-09-0131708-09-004_B;
	longitude 0;
	nominal_voltage 120;
	latitude 0;
};

object node {
	phases ABC;
	name node1808-19-009824830;
	longitude 0;
	nominal_voltage 7200.0;
	latitude 0;
};

object fuse {
	phases C;
	from nodeF7633x1912858;
	name F7633x1;
	current_limit 9999.0 A;
	longitude 0;
	to node912863F7633x1;
	latitude 0;
};

object overhead_line {
	phases CN;
	from node825666825664;
	name 825666;
	longitude 0;
	to node825667825666;
	length 310;
	latitude 0;
	configuration 825692-LINECONFIG;
	groupid Distribution_Line;
};

object underground_line {
	phases A;
	from node924726924725;
	name 924726;
	longitude 0;
	to nodeT11878924726;
	length 980;
	latitude 0;
	configuration 955227-LINECONFIG;
	groupid Distribution_Line;
};

object triplex_meter {
	phases AS;
	name nodeS1707-12-0091707-12-016_A;
	longitude 0;
	nominal_voltage 120;
	latitude 0;
};

object node {
	phases ABC;
	name nodeT10285923966;
	longitude 0;
	nominal_voltage 7200.0;
	latitude 0;
};

object node {
	phases ABC;
	name node984637984636;
	longitude 0;
	nominal_voltage 7200.0;
	latitude 0;
};

object transformer {
	phases CS;
	from node825713825711;
	name 1808-27-007_C;
	to nodeS1808-27-0061808-27-007_C;
	configuration T11988_C-CONFIG;
	groupid Distribution_Trans;
};

object triplex_meter {
	phases CS;
	name nodeS1808-32-073T14065_C;
	longitude 0;
	nominal_voltage 120;
	latitude 0;
};

object triplex_meter {
	phases CS;
	name nodeS1808-29-0851808-0137_C;
	longitude 0;
	nominal_voltage 120;
	latitude 0;
};

object node {
	phases BN;
	name node824921824920;
	longitude 0;
	nominal_voltage 7200.0;
	latitude 0;
};

object triplex_meter {
	phases AS;
	name nodeS1707-15-0091707-0021_A;
	longitude 0;
	nominal_voltage 120;
	latitude 0;
};

object transformer {
	phases AS;
	from nodeT18015928145;
	name T18015_A;
	to nodeS1707-03-016T18015_A;
	configuration T10285_A-CONFIG;
	groupid Distribution_Trans;
};

object underground_line {
	phases B;
	from node825586825585;
	name 825586;
	longitude 0;
	to node825587825586;
	length 906;
	latitude 0;
	configuration 825117-LINECONFIG;
	groupid Distribution_Line;
};

object transformer {
	phases CS;
	from node923318910323;
	name T3902_C;
	to nodeS1808-29-096T3902_C;
	configuration T7300_C-CONFIG;
	groupid Distribution_Trans;
};

object transformer {
	phases CS;
	from node1808-0133825738;
	name 1808-0133_C;
	to nodeS1808-29-0821808-0133_C;
	configuration T7300_C-CONFIG;
	groupid Distribution_Trans;
};

object node {
	phases A;
	name nodeT12395955227;
	longitude 0;
	nominal_voltage 7200.0;
	latitude 0;
};

object underground_line {
	phases ACB;
	from node825283825282;
	name 974701;
	longitude 0;
	to nodeF28709x1974701;
	length 26;
	latitude 0;
	configuration 825456-LINECONFIG;
	groupid Distribution_Line;
};

object node {
	phases B;
	name node920246920252;
	longitude 0;
	nominal_voltage 7200.0;
	latitude 0;
};

object underground_line {
	phases B;
	from node824924982179;
	name 982181;
	longitude 0;
	to nodeF21810x1982181;
	length 40;
	latitude 0;
	configuration 825117-LINECONFIG;
	groupid Distribution_Line;
};

object triplex_node {
	phases CS;
	name S1807-36-008_C;
	parent nodeS1807-36-0081807-36-002_C;
	longitude 0;
	nominal_voltage 120;
	latitude 0;
};

object overhead_line {
	phases BN;
	from node982179824923;
	name 982179;
	longitude 0;
	to node824924982179;
	length 80;
	latitude 0;
	configuration 825114-LINECONFIG;
	groupid Distribution_Line;
};

object underground_line {
	phases ACB;
	from node96060110310x2-Ax1;
	name 960601;
	longitude 0;
	to node960602960601;
	length 20;
	latitude 0;
	configuration 923991-LINECONFIG;
	groupid Distribution_Line;
};

object node {
	phases C;
	name node825639825638;
	longitude 0;
	nominal_voltage 7200.0;
	latitude 0;
};

object node {
	phases B;
	name node1708-0036825150;
	longitude 0;
	nominal_voltage 7200.0;
	latitude 0;
};

object overhead_line {
	phases C;
	from node825659825658;
	name 825659;
	longitude 0;
	to node1808-32-008825659;
	length 401;
	latitude 0;
	configuration 825694-LINECONFIG;
	groupid Distribution_Line;
};

object node {
	phases B;
	name node825181825180;
	longitude 0;
	nominal_voltage 7200.0;
	latitude 0;
};

object node {
	phases B;
	name nodeT28725825593;
	longitude 0;
	nominal_voltage 7200.0;
	latitude 0;
};

object transformer {
	phases CS;
	from node1807-36-005824878;
	name 1807-36-005_C;
	to nodeS1807-36-0011807-36-005_C;
	configuration T7300_C-CONFIG;
	groupid Distribution_Trans;
};

object underground_line {
	phases A;
	from node825266FCMA4-F028x1;
	name 825266;
	longitude 0;
	to node1707-0038825266;
	length 546;
	latitude 0;
	configuration 825244-LINECONFIG;
	groupid Distribution_Line;
};

object transformer {
	phases AS;
	from node1707-0181825210;
	name 1707-0181_A;
	to nodeS1707-01-0091707-0181_A;
	configuration T15860_A-CONFIG;
	groupid Distribution_Trans;
};

object node {
	phases A;
	name node825222825221;
	longitude 0;
	nominal_voltage 7200.0;
	latitude 0;
};

object node {
	phases C;
	name node1808-0068825775;
	longitude 0;
	nominal_voltage 7200.0;
	latitude 0;
};

object node {
	phases CN;
	name node923242923241;
	longitude 0;
	nominal_voltage 7200.0;
	latitude 0;
};

object transformer {
	phases CS;
	from nodeT28684970368;
	name T28684_C;
	to nodeS1707-03-017T28684_C;
	configuration T7300_C-CONFIG;
	groupid Distribution_Trans;
};

object triplex_meter {
	phases BS;
	name nodeS1708-16-0201708-16-012_B;
	longitude 0;
	nominal_voltage 120;
	latitude 0;
};

object node {
	phases BN;
	name node824935824934;
	longitude 0;
	nominal_voltage 7200.0;
	latitude 0;
};

object transformer_configuration {
	name T11874_A-CONFIG;
	primary_voltage 7200.0;
	secondary_voltage 120.0;
	connect_type SINGLE_PHASE_CENTER_TAPPED;
	impedance 0.00399920023992+0.0195960811756j;
	powerA_rating 50;
	power_rating 50;
};

object node {
	phases CN;
	name node824727824726;
	longitude 0;
	nominal_voltage 7200.0;
	latitude 0;
};

object overhead_line {
	phases BN;
	from node824995824994;
	name 824998;
	longitude 0;
	to node824999824998;
	length 385;
	latitude 0;
	configuration 825114-LINECONFIG;
	groupid Distribution_Line;
};

object triplex_node {
	phases AS;
	name S1707-10-027_A;
	parent nodeS1707-10-027T10270_A;
	longitude 0;
	nominal_voltage 120;
	latitude 0;
};

object triplex_meter {
	phases BS;
	name nodeS1708-16-0041708-09-001_B;
	longitude 0;
	nominal_voltage 120;
	latitude 0;
};

object triplex_node {
	phases BS;
	name S1808-19-010_B;
	parent nodeS1808-19-0101808-19-002_B;
	longitude 0;
	nominal_voltage 120;
	latitude 0;
};

object triplex_node {
	phases BS;
	name S1707-10-006_B;
	parent nodeS1707-10-006T10267_B;
	longitude 0;
	nominal_voltage 120;
	latitude 0;
};

object node {
	phases C;
	name node825647825646;
	longitude 0;
	nominal_voltage 7200.0;
	latitude 0;
};

object fuse {
	phases A;
	from nodeF1707-13-404x1910118;
	name F1707-13-404x1;
	current_limit 9999.0 A;
	longitude 0;
	to node910120F1707-13-404x1;
	latitude 0;
};

object triplex_node {
	phases BS;
	name S1708-06-009_B;
	parent nodeS1708-06-0071708-06-001_B;
	longitude 0;
	nominal_voltage 120;
	latitude 0;
};

object underground_line {
	phases ACB;
	from node825450825449;
	name 825458;
	longitude 0;
	to node1707-0014825458;
	length 184;
	latitude 0;
	configuration 825458-LINECONFIG;
	groupid Distribution_Line;
};

object underground_line {
	phases B;
	from node825027825025;
	name 825027;
	longitude 0;
	to nodeF7308x1825027;
	length 20;
	latitude 0;
	configuration 825117-LINECONFIG;
	groupid Distribution_Line;
};

object node {
	phases B;
	name nodeT25124825578;
	longitude 0;
	nominal_voltage 7200.0;
	latitude 0;
};

object triplex_node {
	phases BS;
	name S1707-09-011_B;
	parent nodeS1707-09-011T10303_B;
	longitude 0;
	nominal_voltage 120;
	latitude 0;
};

object node {
	phases BN;
	name node824999824998;
	longitude 0;
	nominal_voltage 7200.0;
	latitude 0;
};

object node {
	phases BN;
	name node824982824978;
	longitude 0;
	nominal_voltage 7200.0;
	latitude 0;
};

object overhead_line {
	phases C;
	from node825714825713;
	name 825714;
	longitude 0;
	to nodeNO448x1-A825714;
	length 258;
	latitude 0;
	configuration 825692-LINECONFIG;
	groupid Distribution_Line;
};

object transformer {
	phases CS;
	from node1707-0055825456;
	name 1707-0055_C;
	to nodeS1707-15-0121707-0055_C;
	configuration 1807--T325_C-CONFIG;
	groupid Distribution_Trans;
};

object node {
	phases ABC;
	name node825287825286;
	longitude 0;
	nominal_voltage 7200.0;
	latitude 0;
};

object transformer {
	phases CS;
	from node1808-33-002825688;
	name 1808-33-002_C;
	to nodeS1808-33-0051808-33-002_C;
	configuration 1808-0046_C-CONFIG;
	groupid Distribution_Trans;
};

object triplex_node {
	phases AS;
	name S1808-31-067_A;
	parent nodeS1808-31-0671808-0100_A;
	longitude 0;
	nominal_voltage 120;
	latitude 0;
};

object overhead_line {
	phases BN;
	from node825108920250;
	name 825108;
	longitude 0;
	to node825107825108;
	length 622;
	latitude 0;
	configuration 825114-LINECONFIG;
	groupid Distribution_Line;
};

object node {
	phases B;
	name node906989F5137x1;
	longitude 0;
	nominal_voltage 7200.0;
	latitude 0;
};

object triplex_meter {
	phases AS;
	name nodeS1807-36-0061807-36-006_A;
	longitude 0;
	nominal_voltage 120;
	latitude 0;
};

object overhead_line {
	phases BN;
	from node825556974705;
	name 825556;
	longitude 0;
	to node920381825556;
	length 633;
	latitude 0;
	configuration 825563-LINECONFIG;
	groupid Distribution_Line;
};

object node {
	phases BN;
	name node825113825112;
	longitude 0;
	nominal_voltage 7200.0;
	latitude 0;
};

object underground_line {
	phases ACB;
	from node825312923952;
	name 923955;
	longitude 0;
	to node825485923955;
	length 1550;
	latitude 0;
	configuration 923991-LINECONFIG;
	groupid Distribution_Line;
};

object triplex_meter {
	phases CS;
	name nodeS1808-29-098T5087_C;
	longitude 0;
	nominal_voltage 120;
	latitude 0;
};

object triplex_meter {
	phases BS;
	name nodeS1708-16-0021708-16-007_B;
	longitude 0;
	nominal_voltage 120;
	latitude 0;
};

object node {
	phases CN;
	name node825684825682;
	longitude 0;
	nominal_voltage 7200.0;
	latitude 0;
};

object triplex_meter {
	phases AS;
	name nodeS1707-13-0101707-13-036_A;
	longitude 0;
	nominal_voltage 120;
	latitude 0;
};

object node {
	phases AN;
	name node825261825259;
	longitude 0;
	nominal_voltage 7200.0;
	latitude 0;
};

object transformer {
	phases BS;
	from nodeT10297825472;
	name T10297_B;
	to nodeS1707-10-026T10297_B;
	configuration 1707-0079_B-CONFIG;
	groupid Distribution_Trans;
};

object triplex_meter {
	phases BS;
	name nodeS1707-03-010T28731_B;
	longitude 0;
	nominal_voltage 120;
	latitude 0;
};

object node {
	phases C;
	name nodeT3288902742;
	longitude 0;
	nominal_voltage 7200.0;
	latitude 0;
};

object triplex_meter {
	phases BS;
	name nodeS1708-09-0151708-09-002_B;
	longitude 0;
	nominal_voltage 120;
	latitude 0;
};

object triplex_meter {
	phases CS;
	name nodeS1808-33-0041808-33-003_C;
	longitude 0;
	nominal_voltage 120;
	latitude 0;
};

object triplex_meter {
	phases BS;
	name nodeS1708-09-0301708-10-003_B;
	longitude 0;
	nominal_voltage 120;
	latitude 0;
};

object triplex_meter {
	phases CS;
	name nodeS1808-33-0111808-0136_C;
	longitude 0;
	nominal_voltage 120;
	latitude 0;
};

object node {
	phases B;
	name nodeF28718x1974685;
	longitude 0;
	nominal_voltage 7200.0;
	latitude 0;
};

object triplex_node {
	phases AS;
	name S1707-10-032_A;
	parent nodeS1707-10-024T11874_A;
	longitude 0;
	nominal_voltage 120;
	latitude 0;
};

object node {
	phases B;
	name node825588825587;
	longitude 0;
	nominal_voltage 7200.0;
	latitude 0;
};

object underground_line {
	phases B;
	from node824905824904;
	name 825180;
	longitude 0;
	to node825181825180;
	length 213;
	latitude 0;
	configuration 825599-LINECONFIG;
	groupid Distribution_Line;
};

object triplex_node {
	phases AS;
	name S1707-12-010_A;
	parent nodeS1707-12-010T12388_A;
	longitude 0;
	nominal_voltage 120;
	latitude 0;
};

object overhead_line {
	phases ACBN;
	from node824705824704;
	name 824707;
	longitude 0;
	to node979614824707;
	length 1574;
	latitude 0;
	configuration 824894-LINECONFIG;
	groupid Distribution_Line;
};

object node {
	phases CN;
	name node825713825711;
	longitude 0;
	nominal_voltage 7200.0;
	latitude 0;
};

object underground_line {
	phases B;
	from node923978923977;
	name 923987;
	longitude 0;
	to node825474923987;
	length 90;
	latitude 0;
	configuration 825117-LINECONFIG;
	groupid Distribution_Line;
};

object underground_line {
	phases C;
	from node825687914182;
	name 825687;
	longitude 0;
	to nodeFCMA4-F011x1825687;
	length 62;
	latitude 0;
	configuration 825688-LINECONFIG;
	groupid Distribution_Line;
};

object overhead_line {
	phases CN;
	from node980393980396;
	name 980393;
	longitude 0;
	to node824860980393;
	length 143;
	latitude 0;
	configuration 825694-LINECONFIG;
	groupid Distribution_Line;
};

object transformer {
	phases CS;
	from node1807-0244824850;
	name 1807-0244_C;
	to nodeS1807-36-0051807-0244_C;
	configuration T7300_C-CONFIG;
	groupid Distribution_Trans;
};

object triplex_meter {
	phases CS;
	name nodeS1808-27-0051808-27-001_C;
	longitude 0;
	nominal_voltage 120;
	latitude 0;
};

object triplex_node {
	phases CS;
	name S1808-32-013_C;
	parent nodeS1808-32-0131808-0082_C;
	longitude 0;
	nominal_voltage 120;
	latitude 0;
};

object triplex_node {
	phases BS;
	name S1807-34-008_B;
	parent nodeS1807-34-0081807-34-003_B;
	longitude 0;
	nominal_voltage 120;
	latitude 0;
};

object triplex_node {
	phases BS;
	name S1707-16-010_B;
	parent nodeS1707-16-010T14062_B;
	longitude 0;
	nominal_voltage 120;
	latitude 0;
};

object node {
	phases C;
	name node825630972841;
	longitude 0;
	nominal_voltage 7200.0;
	latitude 0;
};

object transformer_configuration {
	name 1707-0018_B-CONFIG;
	primary_voltage 7200.0;
	secondary_voltage 120.0;
	connect_type SINGLE_PHASE_CENTER_TAPPED;
	impedance 0.00339932020393+0.0166566689993j;
	powerB_rating 45;
	power_rating 45;
};

object underground_line {
	phases B;
	from node825115825114;
	name 825115;
	longitude 0;
	to nodeF7305x1825115;
	length 19;
	latitude 0;
	configuration 825117-LINECONFIG;
	groupid Distribution_Line;
};

object triplex_meter {
	phases AS;
	name nodeS1707-13-015T11932_A;
	longitude 0;
	nominal_voltage 120;
	latitude 0;
};

object line_configuration {
	name 824901-LINECONFIG;
	spacing 923991-LINESPACING;
	conductor_A 825244-LINECONFIGunderground_line_conductor62003;
	conductor_C 825244-LINECONFIGunderground_line_conductor62003;
	conductor_B 825244-LINECONFIGunderground_line_conductor62003;
};

object underground_line {
	phases ACB;
	from node824900824899;
	name 824900;
	longitude 0;
	to node824901824900;
	length 1262;
	latitude 0;
	configuration 824901-LINECONFIG;
	groupid Distribution_Line;
};

object overhead_line {
	phases CN;
	from node980394980395;
	name 980394;
	longitude 0;
	to node824878980394;
	length 246;
	latitude 0;
	configuration 825694-LINECONFIG;
	groupid Distribution_Line;
};

object transformer {
	phases CS;
	from nodeT29595974368;
	name T29595_C;
	to nodeS1808-19-004T29595_C;
	configuration 1807--T325_C-CONFIG;
	groupid Distribution_Trans;
};

object fuse {
	phases C;
	from nodeFCMA4-F011x1825687;
	name FCMA4-F011x1;
	current_limit 9999.0 A;
	longitude 0;
	to node825688FCMA4-F011x1;
	latitude 0;
};

object line_configuration {
	spacing 825117-LINESPACING;
	name 825688-LINECONFIG;
	conductor_C 825688-LINECONFIGunderground_line_conductor32005;
};

object triplex_node {
	phases CS;
	name S1707-10-023_C;
	parent nodeS1707-10-023T10279_C;
	longitude 0;
	nominal_voltage 120;
	latitude 0;
};

object underground_line {
	phases B;
	from node974678974677;
	name 974679;
	longitude 0;
	to node974683974679;
	length 450;
	latitude 0;
	configuration 825117-LINECONFIG;
	groupid Distribution_Line;
};

object triplex_node {
	phases CS;
	name S1808-29-096_C;
	parent nodeS1808-29-096T3902_C;
	longitude 0;
	nominal_voltage 120;
	latitude 0;
};

object fuse {
	phases C;
	from nodeFCMA4-F107x1824814;
	name FCMA4-F107x1;
	current_limit 9999.0 A;
	longitude 0;
	to node824815FCMA4-F107x1;
	latitude 0;
};

object overhead_line {
	phases AN;
	from node825261825259;
	name 825261;
	longitude 0;
	to node913783825261;
	length 865;
	latitude 0;
	configuration 913826-LINECONFIG;
	groupid Distribution_Line;
};

object triplex_meter {
	phases CS;
	name nodeS1808-19-004T29595_C;
	longitude 0;
	nominal_voltage 120;
	latitude 0;
};

object triplex_meter {
	phases CS;
	name nodeS1707-09-015T14052_C;
	longitude 0;
	nominal_voltage 120;
	latitude 0;
};

object triplex_meter {
	phases BS;
	name nodeS1708-08-0051708-0023_B;
	longitude 0;
	nominal_voltage 120;
	latitude 0;
};

object underground_line {
	phases B;
	from node920248920247;
	name 920248;
	longitude 0;
	to nodeT5390920248;
	length 130;
	latitude 0;
	configuration 825117-LINECONFIG;
	groupid Distribution_Line;
};

object transformer {
	phases BS;
	from node1807-34-003825528;
	name 1807-34-003_B;
	to nodeS1807-34-0081807-34-003_B;
	configuration T7674_B-CONFIG;
	groupid Distribution_Trans;
};

object fuse {
	phases A;
	from nodeFCMA4-F097x1825255;
	name FCMA4-F097x1;
	current_limit 9999.0 A;
	longitude 0;
	to node825256FCMA4-F097x1;
	latitude 0;
};

object node {
	phases C;
	name node1808-29-034824816;
	longitude 0;
	nominal_voltage 7200.0;
	latitude 0;
};

object triplex_meter {
	phases BS;
	name nodeS1807-34-003T28723_B;
	longitude 0;
	nominal_voltage 120;
	latitude 0;
};

object line_configuration {
	conductor_A 825688-LINECONFIGunderground_line_conductor32005;
	spacing 825117-LINESPACING;
	name 825215-LINECONFIG;
};

object triplex_meter {
	phases BS;
	name nodeS1707-11-011T14424_B;
	longitude 0;
	nominal_voltage 120;
	latitude 0;
};

object underground_line {
	phases ACB;
	from node923966923963;
	name 923967;
	longitude 0;
	to nodeF10284x1923967;
	length 30;
	latitude 0;
	configuration 825456-LINECONFIG;
	groupid Distribution_Line;
};

object node {
	phases B;
	name node1708-15-003825015;
	longitude 0;
	nominal_voltage 7200.0;
	latitude 0;
};

object node {
	phases A;
	name node1707-0234825273;
	longitude 0;
	nominal_voltage 7200.0;
	latitude 0;
};

object triplex_node {
	phases CS;
	name S1808-29-004_C;
	parent nodeS1808-29-0011808-29-006_C;
	longitude 0;
	nominal_voltage 120;
	latitude 0;
};

object triplex_node {
	phases BS;
	name S1807-34-010_B;
	parent nodeS1807-34-010T28725_B;
	longitude 0;
	nominal_voltage 120;
	latitude 0;
};

object transformer {
	phases CS;
	from node1807-0316825607;
	name 1807-0316_C;
	to nodeS1807-35-0091807-0316_C;
	configuration 1807--T325_C-CONFIG;
	groupid Distribution_Trans;
};

object underground_line {
	phases B;
	from node919955944543;
	name 919956;
	longitude 0;
	to nodeT3999919956;
	length 240;
	latitude 0;
	configuration 825117-LINECONFIG;
	groupid Distribution_Line;
};

object triplex_meter {
	phases BS;
	name nodeS1707-04-008T15719_B;
	longitude 0;
	nominal_voltage 120;
	latitude 0;
};

object triplex_meter {
	phases CS;
	name nodeS1808-20-0061808-20-007_C;
	longitude 0;
	nominal_voltage 120;
	latitude 0;
};

object node {
	phases C;
	name node911238911237;
	longitude 0;
	nominal_voltage 7200.0;
	latitude 0;
};

object overhead_line {
	phases BN;
	from node824952824951;
	name 824952;
	longitude 0;
	to node824953824952;
	length 571;
	latitude 0;
	configuration 825114-LINECONFIG;
	groupid Distribution_Line;
};

object triplex_node {
	phases BS;
	name S1807-25-011_B;
	parent nodeS1807-25-0111807-25-003_B;
	longitude 0;
	nominal_voltage 120;
	latitude 0;
};

object underground_line {
	phases ACB;
	from node824834824833;
	name 824834;
	longitude 0;
	to node533x1-Bx1824834;
	length 10;
	latitude 0;
	configuration 824901-LINECONFIG;
	groupid Distribution_Line;
};

object triplex_meter {
	phases CS;
	name nodeS1808-29-097T4002_C;
	longitude 0;
	nominal_voltage 120;
	latitude 0;
};

object triplex_node {
	phases BS;
	name S1708-06-012_B;
	parent nodeS1708-06-0121708-06-002_B;
	longitude 0;
	nominal_voltage 120;
	latitude 0;
};

object node {
	phases B;
	name node974692R7234x1;
	longitude 0;
	nominal_voltage 7200.0;
	latitude 0;
};

object underground_line {
	phases C;
	from node824769930246;
	name 824788;
	longitude 0;
	to node930243824788;
	length 817;
	latitude 0;
	configuration 925975-LINECONFIG;
	groupid Distribution_Line;
};

#set profiler=1;
object node {
	phases AN;
	name node910117825251;
	longitude 0;
	nominal_voltage 7200.0;
	latitude 0;
};

object transformer {
	phases CS;
	from nodeT10279923959;
	name T10279_C;
	to nodeS1707-10-023T10279_C;
	configuration T7300_C-CONFIG;
	groupid Distribution_Trans;
};

object fuse {
	phases B;
	from nodeF28722x1974678;
	name F28722x1;
	current_limit 9999.0 A;
	longitude 0;
	to node981975F28722x1;
	latitude 0;
};

object node {
	phases C;
	name node910116923973;
	longitude 0;
	nominal_voltage 7200.0;
	latitude 0;
};

object node {
	phases A;
	name node1707-0038825266;
	longitude 0;
	nominal_voltage 7200.0;
	latitude 0;
};

object overhead_line {
	phases C;
	from node825765825764;
	name 825765;
	longitude 0;
	to node1808-32-026825765;
	length 412;
	latitude 0;
	configuration 825694-LINECONFIG;
	groupid Distribution_Line;
};

object underground_line {
	phases B;
	from node974682974669;
	name 974684;
	longitude 0;
	to node974685974684;
	length 300;
	latitude 0;
	configuration 825117-LINECONFIG;
	groupid Distribution_Line;
};

object triplex_meter {
	phases CS;
	name nodeS1707-15-0071707-0014_C;
	longitude 0;
	nominal_voltage 120;
	latitude 0;
};

object underground_line {
	phases C;
	from node825663825662;
	name 825745;
	longitude 0;
	to nodeF14064x1825745;
	length 50;
	latitude 0;
	configuration 925975-LINECONFIG;
	groupid Distribution_Line;
};

object triplex_meter {
	phases BS;
	name nodeS1708-09-033T4063_B;
	longitude 0;
	nominal_voltage 120;
	latitude 0;
};

object transformer {
	phases BS;
	from nodeT28295980862;
	name T28295_B;
	to nodeS1708-05-014T28295_B;
	configuration 1708-0029_B-CONFIG;
	groupid Distribution_Trans;
};

object overhead_line {
	phases BN;
	from node824984824983;
	name 824984;
	longitude 0;
	to node824985824984;
	length 221;
	latitude 0;
	configuration 825114-LINECONFIG;
	groupid Distribution_Line;
};

object node {
	phases BN;
	name node979834825169;
	longitude 0;
	nominal_voltage 7200.0;
	latitude 0;
};

object underground_line {
	phases B;
	from node929729929728;
	name 930194;
	longitude 0;
	to nodeT12255930194;
	length 560;
	latitude 0;
	configuration 825117-LINECONFIG;
	groupid Distribution_Line;
};

object triplex_node {
	phases AS;
	name S1707-10-030_A;
	parent nodeS1707-10-030T10276_A;
	longitude 0;
	nominal_voltage 120;
	latitude 0;
};

object overhead_line {
	phases C;
	from node824878980394;
	name 824878;
	longitude 0;
	to node1807-36-005824878;
	length 101;
	latitude 0;
	configuration 825694-LINECONFIG;
	groupid Distribution_Line;
};

object transformer {
	phases BS;
	from node825516825514;
	name 1707-0179_B;
	to nodeS1707-03-0111707-0179_B;
	configuration 1707-0079_B-CONFIG;
	groupid Distribution_Trans;
};

object node {
	phases ABCN;
	name node824705824704;
	longitude 0;
	nominal_voltage 7200.0;
	latitude 0;
};

object node {
	phases ABC;
	name node825313825312;
	longitude 0;
	nominal_voltage 7200.0;
	latitude 0;
};

object underground_line {
	phases B;
	from node975302825125;
	name 975302;
	longitude 0;
	to nodeF21729x1975302;
	length 10;
	latitude 0;
	configuration 825117-LINECONFIG;
	groupid Distribution_Line;
};

object node {
	phases BN;
	name node824960824959;
	longitude 0;
	nominal_voltage 7200.0;
	latitude 0;
};

object underground_line {
	phases ACB;
	from node825287825286;
	name 825287;
	longitude 0;
	to node825288825287;
	length 607;
	latitude 0;
	configuration 824901-LINECONFIG;
	groupid Distribution_Line;
};

object overhead_line {
	phases B;
	from node824935824934;
	name 824935;
	longitude 0;
	to node1708-05-012824935;
	length 707;
	latitude 0;
	configuration 825114-LINECONFIG;
	groupid Distribution_Line;
};

object triplex_meter {
	phases AS;
	name nodeS1707-10-027T10270_A;
	longitude 0;
	nominal_voltage 120;
	latitude 0;
};

object transformer {
	phases AS;
	from nodeT18079825341;
	name T18079_A;
	to nodeS1707-10-025T18079_A;
	configuration T18079_A-CONFIG;
	groupid Distribution_Trans;
};

object transformer_configuration {
	name T18079_A-CONFIG;
	primary_voltage 7200.0;
	secondary_voltage 120.0;
	connect_type SINGLE_PHASE_CENTER_TAPPED;
	impedance 0.00399920023992+0.0195960811756j;
	powerA_rating 75;
	power_rating 75;
};

object node {
	phases B;
	name node933217945015;
	longitude 0;
	nominal_voltage 7200.0;
	latitude 0;
};

object node {
	phases CN;
	name node900842824760;
	longitude 0;
	nominal_voltage 7200.0;
	latitude 0;
};

object triplex_meter {
	phases CS;
	name nodeS1808-27-0111808-0166_C;
	longitude 0;
	nominal_voltage 120;
	latitude 0;
};

object triplex_meter {
	phases BS;
	name nodeS1807-24-030T21526_B;
	longitude 0;
	nominal_voltage 120;
	latitude 0;
};

object triplex_node {
	phases BS;
	name S1807-35-009_B;
	parent nodeS1807-35-0091807-0316_B;
	longitude 0;
	nominal_voltage 120;
	latitude 0;
};

object underground_line {
	phases ACB;
	from node950143F10284x1;
	name 950143;
	longitude 0;
	to node825341950143;
	length 3500;
	latitude 0;
	configuration 825458-LINECONFIG;
	groupid Distribution_Line;
};

object transformer {
	phases AS;
	from node983715825797;
	name T29031_A;
	to nodeS1807-24-034T29031_A;
	configuration T10270_A-CONFIG;
	groupid Distribution_Trans;
};

object node {
	phases B;
	name node825598974680;
	longitude 0;
	nominal_voltage 7200.0;
	latitude 0;
};

object underground_line {
	phases B;
	from node825170979834;
	name 825171;
	longitude 0;
	to nodeF18636x1825171;
	length 82;
	latitude 0;
	configuration 825117-LINECONFIG;
	groupid Distribution_Line;
};

object transformer {
	phases BS;
	from node980820824910;
	name 1708-06-044_B;
	to nodeS1708-06-0201708-06-044_B;
	configuration 1708-0029_B-CONFIG;
	groupid Distribution_Trans;
};

object node {
	phases ABCN;
	name node824704824702;
	longitude 0;
	nominal_voltage 7200.0;
	latitude 0;
};

object transformer {
	phases BS;
	from node931436825001;
	name T12268_B;
	to nodeS1708-10-009T12268_B;
	configuration 1708-0029_B-CONFIG;
	groupid Distribution_Trans;
};

object underground_line {
	phases A;
	from node825220FCMA4-F027x1;
	name 825220;
	longitude 0;
	to node825221825220;
	length 921;
	latitude 0;
	configuration 955227-LINECONFIG;
	groupid Distribution_Line;
};

object overhead_line {
	phases CN;
	from node825631825630;
	name 825777;
	longitude 0;
	to node825778825777;
	length 37;
	latitude 0;
	configuration 825694-LINECONFIG;
	groupid Distribution_Line;
};

object transformer {
	phases AS;
	from node825206937615;
	name 1707-01-003_A;
	to nodeS1707-01-0071707-01-003_A;
	configuration 1707-13-013_A-CONFIG;
	groupid Distribution_Trans;
};

object overhead_line {
	phases CN;
	from node825721825720;
	name 825721;
	longitude 0;
	to node825723825721;
	length 398;
	latitude 0;
	configuration 825694-LINECONFIG;
	groupid Distribution_Line;
};

object node {
	phases B;
	name nodeT28716974690;
	longitude 0;
	nominal_voltage 7200.0;
	latitude 0;
};

object triplex_meter {
	phases BS;
	name nodeS1808-19-008T28933_B;
	longitude 0;
	nominal_voltage 120;
	latitude 0;
};

object node {
	phases BN;
	name node824930824929;
	longitude 0;
	nominal_voltage 7200.0;
	latitude 0;
};

object node {
	phases CN;
	name node824859824858;
	longitude 0;
	nominal_voltage 7200.0;
	latitude 0;
};

object triplex_node {
	phases CS;
	name S1808-30-006_C;
	parent nodeS1808-30-0041808-19-010_C;
	longitude 0;
	nominal_voltage 120;
	latitude 0;
};

object node {
	phases AN;
	name node925841914183;
	longitude 0;
	nominal_voltage 7200.0;
	latitude 0;
};

object triplex_meter {
	phases CS;
	name nodeS1808-32-0161808-32-024_C;
	longitude 0;
	nominal_voltage 120;
	latitude 0;
};

object node {
	phases AN;
	name node825232825229;
	longitude 0;
	nominal_voltage 7200.0;
	latitude 0;
};

object underground_line {
	phases B;
	from node825522825521;
	name 825522;
	longitude 0;
	to node825523825522;
	length 1444;
	latitude 0;
	configuration 825599-LINECONFIG;
	groupid Distribution_Line;
};

object node {
	phases CN;
	name node825791825789;
	longitude 0;
	nominal_voltage 7200.0;
	latitude 0;
};

object triplex_meter {
	phases BS;
	name nodeS1708-09-0131708-09-004_B;
	longitude 0;
	nominal_voltage 120;
	latitude 0;
};

object node {
	phases ABC;
	name node984634984637;
	longitude 0;
	nominal_voltage 7200.0;
	latitude 0;
};

object node {
	phases ABC;
	name nodeT29595974368;
	longitude 0;
	nominal_voltage 7200.0;
	latitude 0;
};

object triplex_meter {
	phases CS;
	name nodeS1808-29-0031808-29-012_C;
	longitude 0;
	nominal_voltage 120;
	latitude 0;
};

object triplex_node {
	phases AS;
	name S1707-12-007_A;
	parent nodeS1707-12-007T4331_A;
	longitude 0;
	nominal_voltage 120;
	latitude 0;
};

object underground_line {
	phases A;
	from node825216825215;
	name 825273;
	longitude 0;
	to node1707-0234825273;
	length 369;
	latitude 0;
	configuration 955227-LINECONFIG;
	groupid Distribution_Line;
};

object node {
	phases B;
	name node920248920247;
	longitude 0;
	nominal_voltage 7200.0;
	latitude 0;
};

object node {
	phases B;
	name node929750929749;
	longitude 0;
	nominal_voltage 7200.0;
	latitude 0;
};

object triplex_node {
	phases AS;
	name S1808-19-005_A;
	parent nodeS1808-19-005T28934_A;
	longitude 0;
	nominal_voltage 120;
	latitude 0;
};

object triplex_node {
	phases CS;
	name S1808-19-010_C;
	parent nodeS1808-19-0101808-19-002_C;
	longitude 0;
	nominal_voltage 120;
	latitude 0;
};

object transformer {
	phases BS;
	from node1708-09-026825048;
	name 1708-09-026_B;
	to nodeS1708-09-0081708-09-026_B;
	configuration 1708-0029_B-CONFIG;
	groupid Distribution_Trans;
};

object transformer {
	phases BS;
	from node1807-33-011825570;
	name 1807-33-011_B;
	to nodeS1807-33-0051807-33-011_B;
	configuration 1707-0079_B-CONFIG;
	groupid Distribution_Trans;
};

object overhead_line {
	phases AN;
	from node910117825251;
	name 910117;
	longitude 0;
	to node825252910117;
	length 997;
	latitude 0;
	configuration 913826-LINECONFIG;
	groupid Distribution_Line;
};

object node {
	phases CN;
	name node825727825724;
	longitude 0;
	nominal_voltage 7200.0;
	latitude 0;
};

object node {
	phases B;
	name node975303F21729x1;
	longitude 0;
	nominal_voltage 7200.0;
	latitude 0;
};

object transformer {
	phases BS;
	from node975302825125;
	name 1708-16-016_B;
	to nodeS1708-16-0131708-16-016_B;
	configuration 1708-0029_B-CONFIG;
	groupid Distribution_Trans;
};

object node {
	phases C;
	name node950220824890;
	longitude 0;
	nominal_voltage 7200.0;
	latitude 0;
};

object node {
	phases B;
	name nodeF28730x1974704;
	longitude 0;
	nominal_voltage 7200.0;
	latitude 0;
};

object underground_line {
	phases B;
	from node929743929741;
	name 929743;
	longitude 0;
	to node929744929743;
	length 870;
	latitude 0;
	configuration 825117-LINECONFIG;
	groupid Distribution_Line;
};

object triplex_node {
	phases CS;
	name S1808-21-003_C;
	parent nodeS1808-21-0031808-0151_C;
	longitude 0;
	nominal_voltage 120;
	latitude 0;
};

object transformer {
	phases BS;
	from node1708-0024824946;
	name 1708-0024_B;
	to nodeS1708-08-0091708-0024_B;
	configuration 1707-0079_B-CONFIG;
	groupid Distribution_Trans;
};

object underground_line {
	phases C;
	from node825491970367;
	name 825491;
	longitude 0;
	to nodeT10259825491;
	length 1716;
	latitude 0;
	configuration 825688-LINECONFIG;
	groupid Distribution_Line;
};

object triplex_meter {
	phases CS;
	name nodeS1808-29-094T2627_C;
	longitude 0;
	nominal_voltage 120;
	latitude 0;
};

object node {
	phases ABC;
	name node923929926414;
	longitude 0;
	nominal_voltage 7200.0;
	latitude 0;
};

object triplex_meter {
	phases BS;
	name nodeS1807-35-0081807-0306_B;
	longitude 0;
	nominal_voltage 120;
	latitude 0;
};

object underground_line {
	phases ACB;
	from node825314825313;
	name 928118;
	longitude 0;
	to node928120928118;
	length 1328;
	latitude 0;
	configuration 825456-LINECONFIG;
	groupid Distribution_Line;
};

object overhead_line {
	phases BN;
	from node824924982179;
	name 824924;
	longitude 0;
	to node824925824924;
	length 256;
	latitude 0;
	configuration 825114-LINECONFIG;
	groupid Distribution_Line;
};

object node {
	phases C;
	name node825638902721;
	longitude 0;
	nominal_voltage 7200.0;
	latitude 0;
};

object underground_line {
	phases B;
	from node825505825504;
	name 825505;
	longitude 0;
	to node1707-0233825505;
	length 865;
	latitude 0;
	configuration 825117-LINECONFIG;
	groupid Distribution_Line;
};

object triplex_node {
	phases BS;
	name S1707-11-011_B;
	parent nodeS1707-11-011T14424_B;
	longitude 0;
	nominal_voltage 120;
	latitude 0;
};

object node {
	phases B;
	name node825150957166;
	longitude 0;
	nominal_voltage 7200.0;
	latitude 0;
};

object triplex_node {
	phases AS;
	name S1707-01-012_A;
	parent nodeS1707-01-0121707-0234_A;
	longitude 0;
	nominal_voltage 120;
	latitude 0;
};

object triplex_node {
	phases BS;
	name S1708-16-002_B;
	parent nodeS1708-16-0021708-16-007_B;
	longitude 0;
	nominal_voltage 120;
	latitude 0;
};

object triplex_meter {
	phases CS;
	name nodeS1808-19-0031808-19-009_C;
	longitude 0;
	nominal_voltage 120;
	latitude 0;
};

object triplex_meter {
	phases CS;
	name nodeS1808-29-0741808-0084_C;
	longitude 0;
	nominal_voltage 120;
	latitude 0;
};

object triplex_meter {
	phases BS;
	name nodeS1708-09-0211708-09-003_B;
	longitude 0;
	nominal_voltage 120;
	latitude 0;
};

object overhead_line {
	phases CN;
	from node824733824732;
	name 824733;
	longitude 0;
	to node824734824733;
	length 592;
	latitude 0;
	configuration 824825-LINECONFIG;
	groupid Distribution_Line;
};

object triplex_node {
	phases BS;
	name S1708-09-002_B;
	parent nodeS1708-09-0021708-09-012_B;
	longitude 0;
	nominal_voltage 120;
	latitude 0;
};

object node {
	phases CN;
	name node825764FCMA4-F021x1;
	longitude 0;
	nominal_voltage 7200.0;
	latitude 0;
};

object underground_line {
	phases C;
	from node825639825638;
	name 825639;
	longitude 0;
	to nodeT3285825639;
	length 160;
	latitude 0;
	configuration 925975-LINECONFIG;
	groupid Distribution_Line;
};

object node {
	phases B;
	name node825610825609;
	longitude 0;
	nominal_voltage 7200.0;
	latitude 0;
};

object underground_line {
	phases C;
	from node912863F7633x1;
	name 912863;
	longitude 0;
	to nodeT4107912863;
	length 556;
	latitude 0;
	configuration 925975-LINECONFIG;
	groupid Distribution_Line;
};

object node {
	phases ABC;
	name node923966923963;
	longitude 0;
	nominal_voltage 7200.0;
	latitude 0;
};

object triplex_meter {
	phases BS;
	name nodeS1708-16-0181708-16-011_B;
	longitude 0;
	nominal_voltage 120;
	latitude 0;
};

object triplex_node {
	phases CS;
	name S1807-35-005_C;
	parent nodeS1807-35-005T12925_C;
	longitude 0;
	nominal_voltage 120;
	latitude 0;
};

object node {
	phases BN;
	name node825007825005;
	longitude 0;
	nominal_voltage 7200.0;
	latitude 0;
};

object node {
	phases B;
	name nodeT14400824938;
	longitude 0;
	nominal_voltage 7200.0;
	latitude 0;
};

object transformer {
	phases CS;
	from node1808-0100825627;
	name 1808-0100_C;
	to nodeS1808-31-0671808-0100_C;
	configuration 1807--T325_C-CONFIG;
	groupid Distribution_Trans;
};

object node {
	phases C;
	name node824849R7231x1;
...